Version 4
SHEET 1 2136 1620
WIRE 1424 -112 1424 -224
WIRE 1440 -112 1424 -112
WIRE 1504 -112 1504 -224
WIRE 1504 -112 1488 -112
WIRE 1744 -80 1568 -80
WIRE 1392 -32 864 -32
WIRE 1632 16 1568 16
WIRE 160 80 160 48
WIRE 272 80 272 48
WIRE 384 80 384 48
WIRE 1488 96 1488 64
WIRE 720 176 640 176
WIRE 160 208 160 160
WIRE 272 208 272 160
WIRE 272 208 160 208
WIRE 384 208 384 160
WIRE 384 208 272 208
WIRE 1488 208 1488 176
WIRE 720 224 720 176
WIRE 1232 224 1152 224
WIRE 272 240 272 208
WIRE 1744 256 1744 -80
WIRE 1744 256 1472 256
WIRE 1232 272 1232 224
WIRE 640 336 640 176
WIRE 720 336 720 304
WIRE 336 384 304 384
WIRE 560 384 336 384
WIRE 1152 384 1152 224
WIRE 1232 384 1232 352
WIRE 304 416 304 384
WIRE 864 432 864 -32
WIRE 864 432 736 432
WIRE 1072 432 864 432
WIRE 1600 448 1600 336
WIRE 1616 448 1600 448
WIRE 1680 448 1680 336
WIRE 1680 448 1664 448
WIRE 560 480 496 480
WIRE 864 480 864 432
WIRE 1472 480 1472 256
WIRE 1472 480 1248 480
WIRE 1536 480 1472 480
WIRE 640 512 624 512
WIRE 704 512 688 512
WIRE 304 528 304 496
WIRE 1072 528 1008 528
WIRE 1744 528 1744 256
WIRE 1744 528 1712 528
WIRE 1776 528 1744 528
WIRE 1152 560 1136 560
WIRE 1216 560 1200 560
WIRE 1744 560 1744 528
WIRE 1536 576 1472 576
WIRE 864 592 864 544
WIRE 624 624 624 512
WIRE 704 624 704 512
WIRE 1616 656 1616 624
WIRE 1136 672 1136 560
WIRE 1216 672 1216 560
WIRE 1744 672 1744 624
WIRE 1616 768 1616 736
WIRE 752 800 688 800
WIRE 768 800 752 800
WIRE 688 864 688 800
WIRE 640 880 512 880
WIRE 512 928 512 880
WIRE 464 944 304 944
WIRE 304 1008 304 944
WIRE 304 1120 304 1088
FLAG 272 240 0
FLAG 160 48 $G_VDD
FLAG 272 48 $G_VSS
FLAG 384 48 vmc
FLAG 304 528 vmc
FLAG 1776 528 out
FLAG 336 384 in
FLAG 1008 528 vmc
FLAG 1472 576 vmc
FLAG 1632 16 vmc
FLAG 1232 384 0
FLAG 1616 768 0
FLAG 1488 208 0
FLAG 864 592 vmc
FLAG 1744 672 vmc
FLAG 496 480 vmc
FLAG 720 336 0
FLAG 464 992 0
FLAG 512 1008 0
FLAG 640 928 0
FLAG 688 944 0
FLAG 304 1120 0
FLAG 752 800 out2
SYMBOL voltage 160 64 R0
WINDOW 123 0 0 Left 2
WINDOW 39 0 0 Left 2
SYMATTR InstName V2
SYMATTR Value 1.65
SYMBOL voltage 272 64 R0
WINDOW 123 0 0 Left 2
WINDOW 39 0 0 Left 2
SYMATTR InstName V3
SYMATTR Value -1.65
SYMBOL voltage 384 64 R0
WINDOW 123 0 0 Left 2
WINDOW 39 0 0 Left 2
SYMATTR InstName V1
SYMATTR Value 0
SYMBOL voltage 304 400 R0
WINDOW 3 29 109 Left 2
WINDOW 123 27 93 Left 2
WINDOW 39 0 0 Left 2
SYMATTR Value ""
SYMATTR Value2 AC 1
SYMATTR InstName V4
SYMBOL cap 848 480 R0
SYMATTR InstName C1
SYMBOL cap 1728 560 R0
SYMATTR InstName C2
SYMBOL ao_cp_n 1120 480 M180
SYMATTR InstName X2
SYMBOL ao_cp_n 1584 528 R0
SYMATTR InstName X3
SYMBOL ao_cp_n 1520 -32 M0
SYMATTR InstName X4
SYMBOL current 1232 272 M0
WINDOW 123 0 0 Left 0
WINDOW 39 0 0 Left 0
SYMATTR InstName I2
SYMATTR Value 25µ
SYMBOL current 1616 656 R0
WINDOW 123 0 0 Left 0
WINDOW 39 0 0 Left 0
SYMATTR InstName I3
SYMATTR Value 25µ
SYMBOL current 1488 96 R0
WINDOW 123 0 0 Left 0
WINDOW 39 0 0 Left 0
SYMATTR InstName I4
SYMATTR Value 25µ
SYMBOL res 1232 688 M270
WINDOW 0 32 56 VTop 2
WINDOW 3 0 56 VBottom 2
SYMATTR InstName R2
SYMBOL res 1696 320 R90
WINDOW 0 0 56 VBottom 2
WINDOW 3 32 56 VTop 2
SYMATTR InstName R3
SYMBOL res 1520 -240 R90
WINDOW 0 0 56 VBottom 2
WINDOW 3 32 56 VTop 2
SYMATTR InstName R4
SYMBOL ao_cp_n 608 432 M180
SYMATTR InstName X1
SYMBOL current 720 224 M0
WINDOW 123 0 0 Left 0
WINDOW 39 0 0 Left 0
SYMATTR InstName I1
SYMATTR Value 25µ
SYMBOL res 720 640 M270
WINDOW 0 32 56 VTop 2
WINDOW 3 0 56 VBottom 2
SYMATTR InstName R1
SYMBOL e 512 912 R0
SYMATTR InstName E1
SYMATTR Value laplace = 561.342e-6/(s**2+25.491e-3*s+561.342e-6)
SYMBOL e 688 848 R0
SYMATTR InstName E2
SYMATTR Value laplace = 561.342u/(s**2+25.491m*s+561.342u)
SYMBOL voltage 304 992 R0
WINDOW 123 24 124 Left 2
WINDOW 39 0 0 Left 0
WINDOW 3 24 44 Left 2
SYMATTR Value2 AC 1
SYMATTR Value ""
SYMATTR InstName V5
TEXT 560 -224 Left 2 !.lib proiect_CAA.txt
TEXT 560 -176 Left 2 !.ac dec 100 1m 100
