Version 4
SHEET 1 3380 1620
WIRE 1424 -112 1424 -224
WIRE 1440 -112 1424 -112
WIRE 1504 -112 1504 -224
WIRE 1504 -112 1488 -112
WIRE 1744 -80 1568 -80
WIRE 1392 -32 864 -32
WIRE 1632 16 1568 16
WIRE 2912 32 2912 -80
WIRE 2928 32 2912 32
WIRE 2992 32 2992 -80
WIRE 2992 32 2976 32
WIRE 3232 64 3056 64
WIRE 160 80 160 48
WIRE 272 80 272 48
WIRE 384 80 384 48
WIRE 1488 96 1488 64
WIRE 2880 112 2352 112
WIRE 3120 160 3056 160
WIRE 720 176 640 176
WIRE 160 208 160 160
WIRE 272 208 272 160
WIRE 272 208 160 208
WIRE 384 208 384 160
WIRE 384 208 272 208
WIRE 1488 208 1488 176
WIRE 720 224 720 176
WIRE 1232 224 1152 224
WIRE 272 240 272 208
WIRE 2976 240 2976 208
WIRE 1744 256 1744 -80
WIRE 1744 256 1472 256
WIRE 1232 272 1232 224
WIRE 2208 320 2128 320
WIRE 640 336 640 176
WIRE 720 336 720 304
WIRE 2976 352 2976 320
WIRE 2208 368 2208 320
WIRE 2720 368 2640 368
WIRE 336 384 304 384
WIRE 560 384 336 384
WIRE 1152 384 1152 224
WIRE 1232 384 1232 352
WIRE 3232 400 3232 64
WIRE 3232 400 2960 400
WIRE 304 416 304 384
WIRE 2720 416 2720 368
WIRE 864 432 864 -32
WIRE 864 432 736 432
WIRE 1072 432 864 432
WIRE 1600 448 1600 336
WIRE 1616 448 1600 448
WIRE 1680 448 1680 336
WIRE 1680 448 1664 448
WIRE 560 480 496 480
WIRE 864 480 864 432
WIRE 1472 480 1472 256
WIRE 1472 480 1248 480
WIRE 1536 480 1472 480
WIRE 2128 480 2128 320
WIRE 2208 480 2208 448
WIRE 640 512 624 512
WIRE 704 512 688 512
WIRE 304 528 304 496
WIRE 1072 528 1008 528
WIRE 1744 528 1744 256
WIRE 1744 528 1712 528
WIRE 2048 528 1744 528
WIRE 2640 528 2640 368
WIRE 2720 528 2720 496
WIRE 1152 560 1136 560
WIRE 1216 560 1200 560
WIRE 1744 560 1744 528
WIRE 1536 576 1472 576
WIRE 2352 576 2352 112
WIRE 2352 576 2224 576
WIRE 2560 576 2352 576
WIRE 864 592 864 544
WIRE 3088 592 3088 480
WIRE 3104 592 3088 592
WIRE 3168 592 3168 480
WIRE 3168 592 3152 592
WIRE 624 624 624 512
WIRE 704 624 704 512
WIRE 2048 624 1984 624
WIRE 2352 624 2352 576
WIRE 2960 624 2960 400
WIRE 2960 624 2736 624
WIRE 3024 624 2960 624
WIRE 1616 656 1616 624
WIRE 2128 656 2112 656
WIRE 2192 656 2176 656
WIRE 1136 672 1136 560
WIRE 1216 672 1216 560
WIRE 1744 672 1744 624
WIRE 2560 672 2496 672
WIRE 3232 672 3232 400
WIRE 3232 672 3200 672
WIRE 3264 672 3232 672
WIRE 2640 704 2624 704
WIRE 2704 704 2688 704
WIRE 3232 704 3232 672
WIRE 3024 720 2960 720
WIRE 2352 736 2352 688
WIRE 1616 768 1616 736
WIRE 2112 768 2112 656
WIRE 2192 768 2192 656
WIRE 3104 800 3104 768
WIRE 2624 816 2624 704
WIRE 2704 816 2704 704
WIRE 3232 816 3232 768
WIRE 3104 912 3104 880
WIRE 752 944 688 944
WIRE 768 944 752 944
WIRE 688 1008 688 944
WIRE 640 1024 512 1024
WIRE 512 1072 512 1024
WIRE 464 1088 304 1088
WIRE 304 1152 304 1088
WIRE 304 1264 304 1232
FLAG 272 240 0
FLAG 160 48 $G_VDD
FLAG 272 48 $G_VSS
FLAG 384 48 vmc
FLAG 304 528 vmc
FLAG 336 384 in
FLAG 1008 528 vmc
FLAG 1472 576 vmc
FLAG 1632 16 vmc
FLAG 1232 384 0
FLAG 1616 768 0
FLAG 1488 208 0
FLAG 864 592 vmc
FLAG 1744 672 vmc
FLAG 496 480 vmc
FLAG 720 336 0
FLAG 464 1136 0
FLAG 512 1152 0
FLAG 640 1072 0
FLAG 688 1088 0
FLAG 304 1264 0
FLAG 752 944 out2
FLAG 3264 672 out
FLAG 2496 672 vmc
FLAG 2960 720 vmc
FLAG 3120 160 vmc
FLAG 2720 528 0
FLAG 3104 912 0
FLAG 2976 352 0
FLAG 2352 736 vmc
FLAG 3232 816 vmc
FLAG 1984 624 vmc
FLAG 2208 480 0
SYMBOL voltage 160 64 R0
WINDOW 123 0 0 Left 2
WINDOW 39 0 0 Left 2
SYMATTR InstName V2
SYMATTR Value 1.65
SYMBOL voltage 272 64 R0
WINDOW 123 0 0 Left 2
WINDOW 39 0 0 Left 2
SYMATTR InstName V3
SYMATTR Value -1.65
SYMBOL voltage 384 64 R0
WINDOW 123 0 0 Left 2
WINDOW 39 0 0 Left 2
SYMATTR InstName V1
SYMATTR Value 0
SYMBOL voltage 304 400 R0
WINDOW 3 29 109 Left 2
WINDOW 123 27 93 Left 2
WINDOW 39 0 0 Left 2
SYMATTR Value ""
SYMATTR Value2 AC 1
SYMATTR InstName V4
SYMBOL cap 848 480 R0
SYMATTR InstName C1
SYMATTR Value {C1_1}
SYMBOL cap 1728 560 R0
SYMATTR InstName C2
SYMATTR Value {C2_1}
SYMBOL current 1232 272 M0
WINDOW 123 0 0 Left 0
WINDOW 39 0 0 Left 0
SYMATTR InstName I2
SYMATTR Value 25µ
SYMBOL current 1616 656 R0
WINDOW 123 0 0 Left 0
WINDOW 39 0 0 Left 0
SYMATTR InstName I3
SYMATTR Value 25µ
SYMBOL current 1488 96 R0
WINDOW 123 0 0 Left 0
WINDOW 39 0 0 Left 0
SYMATTR InstName I4
SYMATTR Value 25µ
SYMBOL res 1232 688 M270
WINDOW 0 32 56 VTop 2
WINDOW 3 0 56 VBottom 2
SYMATTR InstName R2
SYMATTR Value {1/GM}
SYMBOL res 1696 320 R90
WINDOW 0 0 56 VBottom 2
WINDOW 3 32 56 VTop 2
SYMATTR InstName R3
SYMATTR Value {1/GM}
SYMBOL res 1520 -240 R90
WINDOW 0 0 56 VBottom 2
WINDOW 3 32 56 VTop 2
SYMATTR InstName R4
SYMATTR Value {1/GM}
SYMBOL current 720 224 M0
WINDOW 123 0 0 Left 0
WINDOW 39 0 0 Left 0
SYMATTR InstName I1
SYMATTR Value 25µ
SYMBOL res 720 640 M270
WINDOW 0 32 56 VTop 2
WINDOW 3 0 56 VBottom 2
SYMATTR InstName R1
SYMATTR Value {1/GM}
SYMBOL e 512 1056 R0
SYMATTR InstName E3
SYMATTR Value laplace = 1/(s**2*(493.367u) + s*(23.898m) +1)
SYMBOL e 688 992 R0
SYMATTR InstName E4
SYMATTR Value laplace = 1/(s**2*(117.707u) + s*(2.361m) +1)
SYMBOL voltage 304 1136 R0
WINDOW 123 24 124 Left 2
WINDOW 39 0 0 Left 0
WINDOW 3 24 44 Left 2
SYMATTR Value2 AC 1
SYMATTR Value ""
SYMATTR InstName V6
SYMBOL cap 2336 624 R0
SYMATTR InstName C3
SYMATTR Value {C1_2}
SYMBOL cap 3216 704 R0
SYMATTR InstName C4
SYMATTR Value {C2_2}
SYMBOL current 2720 416 M0
WINDOW 123 0 0 Left 0
WINDOW 39 0 0 Left 0
SYMATTR InstName I5
SYMATTR Value 25µ
SYMBOL current 3104 800 R0
WINDOW 123 0 0 Left 0
WINDOW 39 0 0 Left 0
SYMATTR InstName I6
SYMATTR Value 25µ
SYMBOL current 2976 240 R0
WINDOW 123 0 0 Left 0
WINDOW 39 0 0 Left 0
SYMATTR InstName I7
SYMATTR Value 25µ
SYMBOL res 2720 832 M270
WINDOW 0 32 56 VTop 2
WINDOW 3 0 56 VBottom 2
SYMATTR InstName R5
SYMATTR Value {1/GM}
SYMBOL res 3184 464 R90
WINDOW 0 0 56 VBottom 2
WINDOW 3 32 56 VTop 2
SYMATTR InstName R6
SYMATTR Value {1/GM}
SYMBOL res 3008 -96 R90
WINDOW 0 0 56 VBottom 2
WINDOW 3 32 56 VTop 2
SYMATTR InstName R7
SYMATTR Value {1/GM}
SYMBOL current 2208 368 M0
WINDOW 123 0 0 Left 0
WINDOW 39 0 0 Left 0
SYMATTR InstName I8
SYMATTR Value 25µ
SYMBOL res 2208 784 M270
WINDOW 0 32 56 VTop 2
WINDOW 3 0 56 VBottom 2
SYMATTR InstName R8
SYMATTR Value {1/GM}
SYMBOL ao_cp_n_deg 1584 528 R0
SYMATTR InstName X9
SYMBOL ao_cp_n_deg 3072 672 R0
SYMATTR InstName X10
SYMBOL ao_cp_n_deg 608 432 M180
SYMATTR InstName X11
SYMBOL ao_cp_n_deg 1120 480 M180
SYMATTR InstName X12
SYMBOL ao_cp_n_deg 2096 576 M180
SYMATTR InstName X13
SYMBOL ao_cp_n_deg 2608 624 M180
SYMATTR InstName X14
SYMBOL ao_cp_n_deg 3008 112 M0
SYMATTR InstName X15
SYMBOL ao_cp_n_deg 1520 -32 M0
SYMATTR InstName X16
TEXT 160 -360 Left 2 !.lib proiect_CAA.txt
TEXT 160 -312 Left 2 !.ac dec 100 1m 100
TEXT 456 -368 Left 2 !.param GM=1m\n.param wp1=45.021\n.param Q1=0.9294\n.param wp2=92.1721\n.param Q2=4.5943\n.param C2_1=(GM/wp1)*Q1\n.param C1_1=C2_1/(Q1**2)\n.param C2_2=(GM/wp2)*Q2\n.param C1_2=C2_2/(Q2**2)
