Version 4
SHEET 1 3432 1156
WIRE 1104 16 496 16
WIRE 1760 16 1184 16
WIRE 496 128 496 16
WIRE 576 128 496 128
WIRE 752 128 656 128
WIRE 2688 160 2080 160
WIRE 3344 160 2768 160
WIRE 496 224 496 128
WIRE 592 224 496 224
WIRE 752 224 752 128
WIRE 752 224 656 224
WIRE 1088 272 960 272
WIRE 1264 272 1152 272
WIRE 2080 272 2080 160
WIRE 2160 272 2080 272
WIRE 2336 272 2240 272
WIRE 1552 320 1456 320
WIRE 1760 320 1760 16
WIRE 1760 320 1632 320
WIRE 2080 368 2080 272
WIRE 2176 368 2080 368
WIRE 2336 368 2336 272
WIRE 2336 368 2240 368
WIRE 336 384 304 384
WIRE 368 384 336 384
WIRE 496 384 496 224
WIRE 496 384 448 384
WIRE 560 384 496 384
WIRE 2672 416 2544 416
WIRE 2848 416 2736 416
WIRE 752 432 752 224
WIRE 752 432 736 432
WIRE 832 432 752 432
WIRE 960 432 960 272
WIRE 960 432 912 432
WIRE 1024 432 960 432
WIRE 304 464 304 384
WIRE 3136 464 3040 464
WIRE 3344 464 3344 160
WIRE 3344 464 3216 464
WIRE 560 480 528 480
WIRE 1264 480 1264 272
WIRE 1264 480 1200 480
WIRE 1328 480 1264 480
WIRE 1456 480 1456 320
WIRE 1456 480 1408 480
WIRE 1520 480 1456 480
WIRE 1024 528 1008 528
WIRE 1760 528 1760 320
WIRE 1760 528 1696 528
WIRE 1952 528 1760 528
WIRE 2080 528 2080 368
WIRE 2080 528 2032 528
WIRE 2144 528 2080 528
WIRE 1520 576 1504 576
WIRE 2336 576 2336 368
WIRE 2336 576 2320 576
WIRE 2416 576 2336 576
WIRE 2544 576 2544 416
WIRE 2544 576 2496 576
WIRE 2608 576 2544 576
WIRE 2144 624 2112 624
WIRE 2848 624 2848 416
WIRE 2848 624 2784 624
WIRE 2912 624 2848 624
WIRE 3040 624 3040 464
WIRE 3040 624 2992 624
WIRE 3104 624 3040 624
WIRE 304 656 304 544
WIRE 528 656 528 480
WIRE 528 656 304 656
WIRE 1008 656 1008 528
WIRE 1008 656 528 656
WIRE 1504 656 1504 576
WIRE 1504 656 1008 656
WIRE 1008 672 1008 656
WIRE 2608 672 2592 672
WIRE 3344 672 3344 464
WIRE 3344 672 3280 672
WIRE 3376 672 3344 672
WIRE 3104 720 3088 720
WIRE 2112 800 2112 624
WIRE 2592 800 2592 672
WIRE 2592 800 2112 800
WIRE 3088 800 3088 720
WIRE 3088 800 2592 800
WIRE 752 816 688 816
WIRE 768 816 752 816
WIRE 2592 816 2592 800
WIRE 688 880 688 816
WIRE 640 896 512 896
WIRE 512 944 512 896
WIRE 464 960 304 960
WIRE 304 1024 304 960
WIRE 304 1136 304 1104
FLAG 336 384 in
FLAG 1008 672 0
FLAG 3376 672 out
FLAG 2592 816 0
FLAG 464 1008 0
FLAG 512 1024 0
FLAG 640 944 0
FLAG 688 960 0
FLAG 304 1136 0
FLAG 752 816 out2
SYMBOL cap 656 208 R90
WINDOW 0 0 32 VBottom 2
WINDOW 3 32 32 VTop 2
SYMATTR InstName C1
SYMATTR Value {C1_1}
SYMBOL voltage 304 448 R0
WINDOW 3 29 109 Left 2
WINDOW 123 23 102 Left 2
WINDOW 39 0 0 Left 2
SYMATTR Value ""
SYMATTR Value2 AC 1
SYMATTR InstName V1
SYMBOL res 464 368 R90
WINDOW 0 0 56 VBottom 2
WINDOW 3 32 56 VTop 2
SYMATTR InstName R1
SYMATTR Value {Rg_1}
SYMBOL ao_model 608 432 R0
SYMATTR InstName X1
SYMBOL res 672 112 R90
WINDOW 0 0 56 VBottom 2
WINDOW 3 32 56 VTop 2
SYMATTR InstName R2
SYMATTR Value {Rq_1}
SYMBOL cap 1152 256 R90
WINDOW 0 0 32 VBottom 2
WINDOW 3 32 32 VTop 2
SYMATTR InstName C2
SYMATTR Value {C2_1}
SYMBOL ao_model 1072 480 R0
SYMATTR InstName X2
SYMBOL res 928 416 R90
WINDOW 0 0 56 VBottom 2
WINDOW 3 32 56 VTop 2
SYMATTR InstName R3
SYMATTR Value {R2_1}
SYMBOL ao_model 1568 528 R0
SYMATTR InstName X3
SYMBOL res 1424 464 R90
WINDOW 0 0 56 VBottom 2
WINDOW 3 32 56 VTop 2
SYMATTR InstName R4
SYMATTR Value {R_1}
SYMBOL res 1648 304 R90
WINDOW 0 0 56 VBottom 2
WINDOW 3 32 56 VTop 2
SYMATTR InstName R5
SYMATTR Value {R_1}
SYMBOL res 1200 0 R90
WINDOW 0 0 56 VBottom 2
WINDOW 3 32 56 VTop 2
SYMATTR InstName R6
SYMATTR Value {R1_1}
SYMBOL cap 2240 352 R90
WINDOW 0 0 32 VBottom 2
WINDOW 3 32 32 VTop 2
SYMATTR InstName C3
SYMATTR Value {C1_2}
SYMBOL res 2048 512 R90
WINDOW 0 0 56 VBottom 2
WINDOW 3 32 56 VTop 2
SYMATTR InstName R7
SYMATTR Value {Rg_2}
SYMBOL ao_model 2192 576 R0
SYMATTR InstName X4
SYMBOL res 2256 256 R90
WINDOW 0 0 56 VBottom 2
WINDOW 3 32 56 VTop 2
SYMATTR InstName R8
SYMATTR Value {Rq_2}
SYMBOL cap 2736 400 R90
WINDOW 0 0 32 VBottom 2
WINDOW 3 32 32 VTop 2
SYMATTR InstName C4
SYMATTR Value {C2_2}
SYMBOL ao_model 2656 624 R0
SYMATTR InstName X5
SYMBOL res 2512 560 R90
WINDOW 0 0 56 VBottom 2
WINDOW 3 32 56 VTop 2
SYMATTR InstName R9
SYMATTR Value {R2_2}
SYMBOL ao_model 3152 672 R0
SYMATTR InstName X6
SYMBOL res 3008 608 R90
WINDOW 0 0 56 VBottom 2
WINDOW 3 32 56 VTop 2
SYMATTR InstName R10
SYMATTR Value {R_2}
SYMBOL res 3232 448 R90
WINDOW 0 0 56 VBottom 2
WINDOW 3 32 56 VTop 2
SYMATTR InstName R11
SYMATTR Value {R_2}
SYMBOL res 2784 144 R90
WINDOW 0 0 56 VBottom 2
WINDOW 3 32 56 VTop 2
SYMATTR InstName R12
SYMATTR Value {R1_2}
SYMBOL e 512 928 R0
SYMATTR InstName E1
SYMATTR Value laplace = 1/(s**2*(493.367u) + s*(23.898m) +1)
SYMBOL e 688 864 R0
SYMATTR InstName E2
SYMATTR Value laplace = 1/(s**2*(117.707u) + s*(2.361m) +1)
SYMBOL voltage 304 1008 R0
WINDOW 123 24 124 Left 2
WINDOW 39 0 0 Left 0
WINDOW 3 24 44 Left 2
SYMATTR Value2 AC 1
SYMATTR Value ""
SYMATTR InstName V2
TEXT 512 -88 Left 2 !.PARAM Rg_1= Rq_1= R1_1= R2_1= R_1= C1_1= C2_1=
TEXT 2088 72 Left 2 !.PARAM Rg_2= Rq_2= R1_2= R2_2= R_2= C1_2= C2_2=
TEXT 512 -144 Left 2 !.ac dec 100 1m 100
