Version 4
SHEET 1 1600 1516
WIRE 96 528 96 496
WIRE 96 560 96 528
WIRE 96 672 96 640
FLAG 96 672 0
FLAG 96 528 ERG
SYMBOL voltage 96 544 R0
WINDOW 123 0 0 Left 2
WINDOW 39 0 0 Left 2
SYMATTR InstName V5
SYMATTR Value SINE(455uV 445uV 15)
TEXT 64 152 Left 2 !.lib proiect_CAA.txt
TEXT 64 192 Left 2 !;ac dec 100 1 1G
TEXT 64 232 Left 2 ;.op
TEXT 64 112 Left 2 !.tran 0 1 0 1u
