Version 4
SHEET 1 2136 1620
WIRE 752 800 688 800
WIRE 768 800 752 800
WIRE 688 864 688 800
WIRE 640 880 512 880
WIRE 512 928 512 880
WIRE 464 944 304 944
WIRE 304 1008 304 944
WIRE 304 1120 304 1088
FLAG 464 992 0
FLAG 512 1008 0
FLAG 640 928 0
FLAG 688 944 0
FLAG 304 1120 0
FLAG 752 800 out2
SYMBOL e 512 912 R0
SYMATTR InstName E1
SYMATTR Value laplace = 1/(s**2*(493.367u) + s*(23.898m) +1)
SYMBOL e 688 848 R0
SYMATTR InstName E2
SYMATTR Value laplace = 1/(s**2*(117.707u) + s*(2.361m) +1)
SYMBOL voltage 304 992 R0
WINDOW 123 24 124 Left 2
WINDOW 39 0 0 Left 0
WINDOW 3 24 44 Left 2
SYMATTR Value2 AC 1
SYMATTR Value ""
SYMATTR InstName V5
TEXT 408 528 Left 2 !.lib proiect_CAA.txt
TEXT 408 576 Left 2 !.ac dec 100 1m 100
