Version 4
SHEET 1 2136 1796
WIRE 1824 928 1648 928
WIRE 1472 976 944 976
WIRE 1728 1024 1648 1024
WIRE 1728 1056 1728 1024
WIRE 1824 1264 1824 928
WIRE 1824 1264 1552 1264
WIRE 416 1392 384 1392
WIRE 640 1392 416 1392
WIRE 384 1424 384 1392
WIRE 944 1440 944 976
WIRE 944 1440 816 1440
WIRE 1152 1440 944 1440
WIRE 640 1488 576 1488
WIRE 944 1488 944 1440
WIRE 1552 1488 1552 1264
WIRE 1552 1488 1328 1488
WIRE 1616 1488 1552 1488
WIRE 576 1520 576 1488
WIRE 384 1536 384 1504
WIRE 1152 1536 1088 1536
WIRE 1824 1536 1824 1264
WIRE 1824 1536 1792 1536
WIRE 1856 1536 1824 1536
WIRE 1088 1568 1088 1536
WIRE 1824 1568 1824 1536
WIRE 1616 1584 1552 1584
WIRE 944 1600 944 1552
WIRE 1552 1616 1552 1584
WIRE 1824 1680 1824 1632
FLAG 1856 1536 out
FLAG 416 1392 in
FLAG 384 1536 0
FLAG 944 1600 0
FLAG 1824 1680 0
FLAG 1552 1616 0
FLAG 1088 1568 0
FLAG 576 1520 0
FLAG 1728 1056 0
SYMBOL voltage 384 1408 R0
WINDOW 3 29 109 Left 2
WINDOW 123 27 93 Left 2
WINDOW 39 0 0 Left 2
SYMATTR Value ""
SYMATTR Value2 AC 1
SYMATTR InstName V5
SYMBOL cap 928 1488 R0
SYMATTR InstName C3
SYMBOL cap 1808 1568 R0
SYMATTR InstName C4
SYMBOL gm_model 688 1440 M180
SYMATTR InstName X5
SYMBOL gm_model 1200 1488 M180
SYMATTR InstName X6
SYMBOL gm_model 1664 1536 R0
SYMATTR InstName X7
SYMBOL gm_model 1600 976 M0
SYMATTR InstName X8
TEXT 416 976 Left 2 !.lib proiect_CAA.txt
TEXT 416 1024 Left 2 !.ac dec 100 1m 100
