Version 4
SHEET 1 1572 680
WIRE 80 -656 16 -656
WIRE 96 -656 80 -656
WIRE 16 -640 16 -656
WIRE -720 -624 -720 -640
WIRE -64 -624 -160 -624
WIRE -32 -624 -64 -624
WIRE -1040 -608 -1040 -624
WIRE -896 -608 -896 -640
WIRE -1040 -576 -1040 -608
WIRE -896 -576 -896 -608
WIRE -720 -576 -720 -624
WIRE -32 -576 -80 -576
WIRE -160 -560 -160 -624
WIRE 16 -544 16 -560
WIRE 80 -544 16 -544
WIRE 96 -544 80 -544
WIRE -480 -528 -512 -528
WIRE -448 -528 -480 -528
WIRE 16 -528 16 -544
WIRE -448 -512 -448 -528
WIRE -64 -512 -64 -624
WIRE -32 -512 -64 -512
WIRE -80 -464 -80 -576
WIRE -32 -464 -80 -464
WIRE -1040 -448 -1040 -496
WIRE -896 -448 -896 -496
WIRE -720 -448 -720 -496
WIRE -480 -432 -512 -432
WIRE -448 -432 -448 -448
WIRE -448 -432 -480 -432
WIRE 16 -432 16 -448
WIRE 80 -432 16 -432
WIRE 96 -432 80 -432
WIRE -160 -416 -160 -480
WIRE -80 -416 -80 -464
WIRE -928 -320 -928 -336
WIRE -928 -304 -928 -320
WIRE -464 -288 -512 -288
WIRE -160 -288 -384 -288
WIRE -816 -272 -832 -272
WIRE -800 -272 -816 -272
WIRE -960 -240 -1024 -240
WIRE -816 -240 -832 -240
WIRE -800 -240 -816 -240
WIRE -1024 -224 -1024 -240
WIRE -816 -208 -832 -208
WIRE -800 -208 -816 -208
WIRE -304 -208 -304 -240
WIRE -272 -208 -272 -240
WIRE -1024 -192 -1024 -224
WIRE -304 -192 -304 -208
WIRE -272 -192 -272 -208
WIRE -928 -160 -928 -176
WIRE -928 -144 -928 -160
WIRE -688 -144 -720 -144
WIRE -656 -144 -688 -144
WIRE -480 -144 -576 -144
WIRE -384 -144 -480 -144
WIRE -160 -144 -160 -288
WIRE -128 -144 -160 -144
WIRE -96 -144 -128 -144
WIRE -400 -96 -432 -96
WIRE -384 -96 -400 -96
WIRE -1024 -80 -1024 -112
WIRE -400 -64 -432 -64
WIRE -384 -64 -400 -64
WIRE -688 -16 -720 -16
WIRE -656 -16 -688 -16
WIRE -512 -16 -512 -288
WIRE -512 -16 -576 -16
WIRE -384 -16 -512 -16
WIRE -128 -16 -160 -16
WIRE -96 -16 -128 -16
WIRE -304 80 -304 32
WIRE -272 80 -272 32
WIRE -304 96 -304 80
WIRE -272 96 -272 80
WIRE -480 144 -480 -144
WIRE -432 144 -480 144
WIRE -160 144 -160 -16
WIRE -160 144 -352 144
FLAG -1040 -448 0
FLAG -896 -448 0
FLAG -720 -448 0
FLAG -1040 -608 VDD
FLAG -896 -608 VSS
FLAG -720 -624 Vcmref
FLAG -80 -416 0
FLAG -160 -416 0
FLAG 80 -656 Ip
FLAG 80 -544 Vcmref
FLAG 80 -432 Im
FLAG -480 -528 Op
FLAG -480 -432 Om
FLAG -128 -144 Op
FLAG -128 -16 Om
FLAG -688 -144 Ip
FLAG -688 -16 Im
FLAG -400 -96 Vcmref
FLAG -400 -64 Vbiasn
FLAG -304 -208 VDD
FLAG -304 80 VSS
FLAG -928 -320 VDD
FLAG -928 -160 VSS
FLAG -816 -272 Vcasp
FLAG -816 -240 Vcasn
FLAG -816 -208 Vbiasn
FLAG -1024 -80 0
FLAG -1024 -224 Iref
FLAG -272 -208 Vcasp
FLAG -272 80 Vcasn
SYMBOL voltage -1040 -592 R0
SYMATTR InstName V1
SYMATTR Value 3V
SYMBOL voltage -896 -592 R0
SYMATTR InstName V2
SYMATTR Value 0V
SYMBOL voltage -720 -592 R0
SYMATTR InstName V3
SYMATTR Value 1.5V
SYMBOL e 16 -656 R0
WINDOW 3 35 54 Left 2
SYMATTR Value 0.5
SYMATTR InstName E1
SYMBOL e 16 -544 R0
WINDOW 3 35 57 Left 2
SYMATTR Value 0.5
SYMATTR InstName E2
SYMBOL voltage -160 -576 R0
WINDOW 123 24 34 Left 2
WINDOW 39 0 0 Left 2
WINDOW 3 -39 194 Left 2
SYMATTR Value2 AC 1
SYMATTR Value PULSE(-500m 500m 0 10p 10p 500n 1u)
SYMATTR InstName V4
SYMBOL cap -464 -512 R0
SYMATTR InstName C3
SYMATTR Value 5p
SYMBOL res -560 -160 R90
WINDOW 0 0 56 VBottom 2
WINDOW 3 32 56 VTop 2
SYMATTR InstName R1
SYMATTR Value 100k
SYMBOL res -560 -32 R90
WINDOW 0 0 56 VBottom 2
WINDOW 3 32 56 VTop 2
SYMATTR InstName R2
SYMATTR Value 100k
SYMBOL res -368 -304 R90
WINDOW 0 0 56 VBottom 2
WINDOW 3 32 56 VTop 2
SYMATTR InstName R3
SYMATTR Value 100k
SYMBOL res -336 128 R90
WINDOW 0 0 56 VBottom 2
WINDOW 3 32 56 VTop 2
SYMATTR InstName R4
SYMATTR Value 100k
SYMBOL bias -944 -288 R0
SYMATTR InstName X3
SYMBOL current -1024 -192 R0
SYMATTR InstName I2
SYMATTR Value 25µ
SYMBOL opampFC -352 -192 R0
SYMATTR InstName X4
TEXT -528 -624 Left 2 !.lib cmos_TSMC018_TT.lib
TEXT -512 -600 Left 2 !;op
TEXT -512 -576 Left 2 !;ac dec 100 10 10G
TEXT -448 -600 Left 2 !.tran 0 3u 0 0.1n
TEXT -288 -320 Left 2 ;afisez   V(op)-V(om)   V(ip)-V(im)
