Version 4
SHEET 1 1072 680
WIRE -432 -432 -432 -448
WIRE -336 -432 -336 -448
WIRE -224 -432 -224 -448
WIRE -48 -432 -48 -448
WIRE -432 -400 -432 -432
WIRE -336 -400 -336 -432
WIRE -224 -400 -224 -432
WIRE -48 -400 -48 -432
WIRE -432 -288 -432 -320
WIRE -336 -288 -336 -320
WIRE -224 -288 -224 -320
WIRE -48 -288 -48 -320
WIRE 272 -288 272 -304
WIRE 304 -288 304 -304
WIRE 272 -272 272 -288
WIRE 304 -272 304 -288
WIRE -224 -224 -288 -224
WIRE -208 -224 -224 -224
WIRE 160 -224 144 -224
WIRE 192 -224 160 -224
WIRE 448 -224 416 -224
WIRE 480 -224 448 -224
WIRE -288 -208 -288 -224
WIRE -352 -192 -432 -192
WIRE -336 -192 -352 -192
WIRE 480 -192 480 -224
WIRE 160 -176 144 -176
WIRE 192 -176 160 -176
WIRE -432 -160 -432 -192
WIRE -64 -160 -64 -176
WIRE -336 -144 -368 -144
WIRE -64 -144 -64 -160
WIRE 176 -144 144 -144
WIRE 192 -144 176 -144
WIRE -288 -112 -288 -128
WIRE -224 -112 -288 -112
WIRE -208 -112 -224 -112
WIRE 48 -112 32 -112
WIRE 64 -112 48 -112
WIRE -288 -96 -288 -112
WIRE 160 -96 144 -96
WIRE 192 -96 160 -96
WIRE 448 -96 416 -96
WIRE 480 -96 480 -128
WIRE 480 -96 448 -96
WIRE -352 -80 -352 -192
WIRE -336 -80 -352 -80
WIRE -112 -80 -128 -80
WIRE -96 -80 -112 -80
WIRE 48 -80 32 -80
WIRE 64 -80 48 -80
WIRE 48 -48 32 -48
WIRE 64 -48 48 -48
WIRE -368 -32 -368 -144
WIRE -336 -32 -368 -32
WIRE 272 -32 272 -48
WIRE 304 -32 304 -48
WIRE -432 -16 -432 -80
WIRE -368 -16 -368 -32
WIRE 272 -16 272 -32
WIRE 304 -16 304 -32
WIRE -288 0 -288 -16
WIRE -224 0 -288 0
WIRE -208 0 -224 0
WIRE -64 0 -64 -16
WIRE -64 16 -64 0
FLAG -336 -288 0
FLAG -432 -288 0
FLAG -432 -432 VDD
FLAG -336 -432 VSS
FLAG -48 -288 0
FLAG -48 -432 Iref
FLAG -224 -288 0
FLAG -224 -432 Vcmref
FLAG -64 -160 VDD
FLAG -112 -80 Iref
FLAG -64 0 VSS
FLAG 48 -112 Vcasp
FLAG 48 -80 Vcasn
FLAG 48 -48 Vbiasn
FLAG -368 -16 0
FLAG -432 -16 0
FLAG -224 -224 Ip
FLAG -224 -112 Vcmref
FLAG -224 0 Im
FLAG 272 -288 VDD
FLAG 304 -288 Vcasp
FLAG 272 -32 VSS
FLAG 176 -144 Vbiasn
FLAG 304 -32 Vcasn
FLAG 160 -224 Ip
FLAG 160 -176 Vcmref
FLAG 160 -96 Im
FLAG 448 -224 Op
FLAG 448 -96 Om
SYMBOL voltage -336 -416 R0
SYMATTR InstName V3
SYMATTR Value 0V
SYMBOL voltage -432 -416 R0
SYMATTR InstName V4
SYMATTR Value 3V
SYMBOL current -48 -400 R0
SYMATTR InstName I1
SYMATTR Value 25µ
SYMBOL voltage -224 -416 R0
SYMATTR InstName V5
SYMATTR Value 1.5V
SYMBOL bias -80 -128 R0
SYMATTR InstName X1
SYMBOL e -288 -224 R0
WINDOW 3 35 54 Left 2
SYMATTR Value 0.5
SYMATTR InstName E1
SYMBOL e -288 -112 R0
WINDOW 3 35 57 Left 2
SYMATTR Value 0.5
SYMATTR InstName E2
SYMBOL voltage -432 -176 R0
WINDOW 123 24 34 Left 2
WINDOW 39 0 0 Left 2
SYMATTR Value2 AC 1
SYMATTR InstName V6
SYMATTR Value 0
SYMBOL cap 464 -192 R0
SYMATTR InstName C4
SYMATTR Value 5p
SYMBOL opampFC 224 -272 R0
SYMATTR InstName X2
TEXT 112 -440 Left 2 !.lib cmos_TSMC018_TT.lib
TEXT 112 -416 Left 2 !.op
TEXT 112 -392 Left 2 !.ac dec 100 10 10G
TEXT 112 -368 Left 2 ;afisez   V(op)-V(om)
