Version 4
SHEET 1 1072 704
WIRE -1792 -32 -1872 -32
WIRE -1872 16 -1872 -32
WIRE -1024 80 -1024 32
WIRE -1088 96 -1152 96
WIRE -928 128 -944 128
WIRE -1872 144 -1872 96
WIRE -1088 144 -1104 144
WIRE -1488 176 -1536 176
WIRE -1456 176 -1488 176
WIRE -1536 224 -1536 176
WIRE -1104 224 -1104 144
WIRE -928 224 -928 128
WIRE -928 224 -1104 224
WIRE -1536 352 -1536 304
WIRE -1008 352 -1008 160
FLAG -1008 352 0
FLAG -1536 352 0
FLAG -1872 144 0
FLAG -1792 -32 vdd
FLAG -1024 32 vdd
FLAG -1488 176 vin
FLAG -1152 96 vin
SYMBOL voltage -1872 0 R0
WINDOW 123 0 0 Left 0
WINDOW 39 0 0 Left 0
SYMATTR InstName V1
SYMATTR Value 3.3
SYMBOL voltage -1536 208 R0
WINDOW 123 0 0 Left 0
WINDOW 39 0 0 Left 0
SYMATTR InstName V2
SYMATTR Value 1.65
SYMBOL foldedCascode -1024 144 R0
SYMATTR InstName X1
TEXT -512 -48 Left 2 !.op
TEXT -624 -344 Left 2 !.lib proiect_CAA.lib
