Version 4
SHEET 1 2136 864
WIRE 1104 -176 496 -176
WIRE 1760 -176 1184 -176
WIRE 496 -64 496 -176
WIRE 576 -64 496 -64
WIRE 752 -64 656 -64
WIRE 496 32 496 -64
WIRE 592 32 496 32
WIRE 752 32 752 -64
WIRE 752 32 656 32
WIRE 160 80 160 48
WIRE 272 80 272 48
WIRE 384 80 384 48
WIRE 1088 80 960 80
WIRE 1264 80 1152 80
WIRE 1552 128 1456 128
WIRE 1760 128 1760 -176
WIRE 1760 128 1632 128
WIRE 160 208 160 160
WIRE 272 208 272 160
WIRE 272 208 160 208
WIRE 384 208 384 160
WIRE 384 208 272 208
WIRE 272 240 272 208
WIRE 640 240 640 208
WIRE 1104 288 1104 256
WIRE 1600 336 1600 320
WIRE 640 352 640 320
WIRE 336 384 304 384
WIRE 368 384 336 384
WIRE 496 384 496 32
WIRE 496 384 448 384
WIRE 560 384 496 384
WIRE 1104 400 1104 368
WIRE 304 416 304 384
WIRE 752 432 752 32
WIRE 752 432 736 432
WIRE 832 432 752 432
WIRE 960 432 960 80
WIRE 960 432 912 432
WIRE 1024 432 960 432
WIRE 1600 448 1600 416
WIRE 560 480 528 480
WIRE 1264 480 1264 80
WIRE 1264 480 1200 480
WIRE 1328 480 1264 480
WIRE 1456 480 1456 128
WIRE 1456 480 1408 480
WIRE 1520 480 1456 480
WIRE 304 528 304 496
WIRE 1024 528 1008 528
WIRE 1760 528 1760 128
WIRE 1760 528 1696 528
WIRE 1776 528 1760 528
WIRE 1520 576 1504 576
FLAG 272 240 0
FLAG 160 48 $G_VDD
FLAG 272 48 $G_VSS
FLAG 384 48 vmc
FLAG 304 528 vmc
FLAG 1776 528 out
FLAG 528 480 vmc
FLAG 336 384 in
FLAG 1008 528 vmc
FLAG 1504 576 vmc
FLAG 640 208 $G_VDD
FLAG 1104 256 $G_VDD
FLAG 1600 320 $G_VDD
SYMBOL voltage 160 64 R0
WINDOW 123 0 0 Left 2
WINDOW 39 0 0 Left 2
SYMATTR InstName V2
SYMATTR Value 3.3
SYMBOL voltage 272 64 R0
WINDOW 123 0 0 Left 2
WINDOW 39 0 0 Left 2
SYMATTR InstName V3
SYMATTR Value 0
SYMBOL voltage 384 64 R0
WINDOW 123 0 0 Left 2
WINDOW 39 0 0 Left 2
SYMATTR InstName V1
SYMATTR Value 1.65
SYMBOL cap 656 16 R90
WINDOW 0 0 32 VBottom 2
WINDOW 3 32 32 VTop 2
SYMATTR InstName C1
SYMATTR Value {C1}
SYMBOL voltage 304 400 R0
WINDOW 3 29 109 Left 2
WINDOW 123 27 93 Left 2
WINDOW 39 0 0 Left 2
SYMATTR Value ""
SYMATTR Value2 AC 1
SYMATTR InstName V4
SYMBOL res 464 368 R90
WINDOW 0 0 56 VBottom 2
WINDOW 3 32 56 VTop 2
SYMATTR InstName R1
SYMATTR Value {Rg}
SYMBOL res 672 -80 R90
WINDOW 0 0 56 VBottom 2
WINDOW 3 32 56 VTop 2
SYMATTR InstName R2
SYMATTR Value {Rq}
SYMBOL cap 1152 64 R90
WINDOW 0 0 32 VBottom 2
WINDOW 3 32 32 VTop 2
SYMATTR InstName C2
SYMATTR Value {C2}
SYMBOL res 928 416 R90
WINDOW 0 0 56 VBottom 2
WINDOW 3 32 56 VTop 2
SYMATTR InstName R3
SYMATTR Value {R2}
SYMBOL res 1424 464 R90
WINDOW 0 0 56 VBottom 2
WINDOW 3 32 56 VTop 2
SYMATTR InstName R4
SYMATTR Value {R}
SYMBOL res 1648 112 R90
WINDOW 0 0 56 VBottom 2
WINDOW 3 32 56 VTop 2
SYMATTR InstName R5
SYMATTR Value {R}
SYMBOL res 1200 -192 R90
WINDOW 0 0 56 VBottom 2
WINDOW 3 32 56 VTop 2
SYMATTR InstName R6
SYMATTR Value {R1}
SYMBOL current 640 240 R0
WINDOW 123 0 0 Left 0
WINDOW 39 0 0 Left 0
SYMATTR InstName I1
SYMATTR Value 100u
SYMBOL current 1104 288 R0
WINDOW 123 0 0 Left 0
WINDOW 39 0 0 Left 0
SYMATTR InstName I2
SYMATTR Value 100u
SYMBOL current 1600 336 R0
WINDOW 123 0 0 Left 0
WINDOW 39 0 0 Left 0
SYMATTR InstName I3
SYMATTR Value 100u
SYMBOL ao_cp_p 608 432 R0
SYMATTR InstName X4
SYMBOL ao_cp_p 1072 480 R0
SYMATTR InstName X5
SYMBOL ao_cp_p 1568 528 R0
SYMATTR InstName X6
TEXT 560 -264 Left 2 !.lib cmos_TSMC018_TT.txt
TEXT 552 -216 Left 2 !.PARAM Rg= Rq= R1= R2= R= C1= C2=
