Version 4
SHEET 1 2136 864
WIRE 1104 -256 1104 -272
WIRE 1200 -256 1200 -272
WIRE 1104 -240 1104 -256
WIRE 1200 -240 1200 -256
WIRE 1040 -176 560 -176
WIRE 1552 -176 1264 -176
WIRE 688 -144 688 -160
WIRE 784 -144 784 -160
WIRE 688 -128 688 -144
WIRE 784 -128 784 -144
WIRE 1152 -96 1152 -112
WIRE 560 -64 560 -176
WIRE 624 -64 560 -64
WIRE 928 -64 848 -64
WIRE 736 16 736 0
WIRE 160 80 160 48
WIRE 272 80 272 48
WIRE 384 80 384 48
WIRE 560 96 560 -64
WIRE 688 96 560 96
WIRE 928 96 928 -64
WIRE 928 96 752 96
WIRE 1328 96 1216 96
WIRE 1520 96 1392 96
WIRE 1632 128 1632 112
WIRE 1824 128 1824 112
WIRE 1632 160 1632 128
WIRE 160 208 160 160
WIRE 272 208 272 160
WIRE 272 208 160 208
WIRE 384 208 384 160
WIRE 384 208 272 208
WIRE 272 240 272 208
WIRE 736 240 736 224
WIRE 1632 288 1632 240
WIRE 1728 288 1632 288
WIRE 1824 288 1824 208
WIRE 1824 288 1728 288
WIRE 336 304 336 288
WIRE 432 304 432 288
WIRE 1360 304 1360 272
WIRE 336 320 336 304
WIRE 432 320 432 304
WIRE 1728 336 1728 288
WIRE 736 352 736 320
WIRE 1024 352 1024 336
WIRE 1120 352 1120 336
WIRE 1024 368 1024 352
WIRE 1120 368 1120 352
WIRE 240 384 224 384
WIRE 272 384 240 384
WIRE 560 384 560 96
WIRE 560 384 496 384
WIRE 656 384 560 384
WIRE 1360 400 1360 384
WIRE 224 416 224 384
WIRE 928 432 928 96
WIRE 928 432 832 432
WIRE 960 432 928 432
WIRE 1216 432 1216 96
WIRE 1216 432 1184 432
WIRE 1280 432 1216 432
WIRE 384 464 384 448
WIRE 656 480 640 480
WIRE 1520 480 1520 96
WIRE 1520 480 1456 480
WIRE 1552 480 1552 -176
WIRE 1552 480 1520 480
WIRE 1568 480 1552 480
WIRE 1072 512 1072 496
WIRE 224 528 224 496
WIRE 1280 528 1264 528
FLAG 272 240 0
FLAG 160 48 $G_VDD
FLAG 272 48 $G_VSS
FLAG 384 48 vmc
FLAG 224 528 vmc
FLAG 1568 480 out
FLAG 640 480 vmc
FLAG 240 384 in
FLAG 1264 528 vmc
FLAG 384 464 vmc
FLAG 336 304 sa
FLAG 432 304 sb
FLAG 1072 512 vmc
FLAG 1024 352 sa
FLAG 1120 352 sb
FLAG 1152 -96 vmc
FLAG 1104 -256 sa
FLAG 1200 -256 sb
FLAG 736 16 vmc
FLAG 688 -144 sa
FLAG 784 -144 sb
FLAG 1728 336 0
FLAG 1632 128 sa
FLAG 1824 112 sb
FLAG 736 224 $G_VDD
FLAG 1360 272 $G_VDD
SYMBOL voltage 160 64 R0
WINDOW 123 0 0 Left 2
WINDOW 39 0 0 Left 2
SYMATTR InstName V2
SYMATTR Value 3.3
SYMBOL voltage 272 64 R0
WINDOW 123 0 0 Left 2
WINDOW 39 0 0 Left 2
SYMATTR InstName V3
SYMATTR Value 0
SYMBOL voltage 384 64 R0
WINDOW 123 0 0 Left 2
WINDOW 39 0 0 Left 2
SYMATTR InstName V1
SYMATTR Value 1.65
SYMBOL cap 752 80 R90
WINDOW 0 0 32 VBottom 2
WINDOW 3 32 32 VTop 2
SYMATTR InstName C1
SYMATTR Value {C1}
SYMBOL voltage 224 400 R0
WINDOW 3 16 99 Left 2
WINDOW 123 24 36 Left 2
WINDOW 39 0 0 Left 2
SYMATTR Value SINE()
SYMATTR InstName V4
SYMBOL cap 1392 80 R90
WINDOW 0 0 32 VBottom 2
WINDOW 3 32 32 VTop 2
SYMATTR InstName C2
SYMATTR Value {C2}
SYMBOL current 736 240 R0
WINDOW 123 0 0 Left 0
WINDOW 39 0 0 Left 0
SYMATTR InstName I1
SYMATTR Value 75u
SYMBOL current 1360 304 R0
WINDOW 123 0 0 Left 0
WINDOW 39 0 0 Left 0
SYMATTR InstName I2
SYMATTR Value 75u
SYMBOL R4C_TGATE 480 432 R0
SYMATTR InstName X3
SYMATTR SpiceLine C={Ccg}
SYMBOL R4C_TGATE 1168 480 R0
SYMATTR InstName X4
SYMATTR SpiceLine C={Cc2}
SYMBOL R4Ci_TGATE 1248 -128 R0
SYMATTR InstName X5
SYMATTR SpiceLine C={Cc1}
SYMBOL R4C_TGATE 832 -16 R0
SYMATTR InstName X6
SYMATTR SpiceLine C={Ccq}
SYMBOL voltage 1632 144 R0
WINDOW 123 0 0 Left 2
WINDOW 39 0 0 Left 2
WINDOW 3 17 101 Left 2
SYMATTR Value PULSE()
SYMATTR InstName V5
SYMBOL voltage 1824 112 R0
WINDOW 123 0 0 Left 2
WINDOW 39 0 0 Left 2
WINDOW 3 18 103 Left 2
SYMATTR Value PULSE()
SYMATTR InstName V6
SYMBOL ao_cp_p 704 432 R0
SYMATTR InstName X7
SYMBOL ao_cp_p 1328 480 R0
SYMATTR InstName X8
TEXT 224 -48 Left 2 !.lib cmos_TSMC018_TT.txt
TEXT 560 -224 Left 2 !.PARAM Ccg= Ccq= Cc1= Cc2= C1= C2=
