Version 4
SHEET 1 2136 816
WIRE 1104 16 496 16
WIRE 1760 16 1184 16
WIRE 496 128 496 16
WIRE 576 128 496 128
WIRE 752 128 656 128
WIRE 496 224 496 128
WIRE 592 224 496 224
WIRE 752 224 752 128
WIRE 752 224 656 224
WIRE 1088 272 960 272
WIRE 1264 272 1152 272
WIRE 1552 320 1456 320
WIRE 1760 320 1760 16
WIRE 1760 320 1632 320
WIRE 336 384 304 384
WIRE 368 384 336 384
WIRE 496 384 496 224
WIRE 496 384 448 384
WIRE 560 384 496 384
WIRE 752 432 752 224
WIRE 752 432 736 432
WIRE 832 432 752 432
WIRE 960 432 960 272
WIRE 960 432 912 432
WIRE 1024 432 960 432
WIRE 304 464 304 384
WIRE 560 480 528 480
WIRE 1264 480 1264 272
WIRE 1264 480 1200 480
WIRE 1328 480 1264 480
WIRE 1456 480 1456 320
WIRE 1456 480 1408 480
WIRE 1520 480 1456 480
WIRE 1024 528 1008 528
WIRE 1760 528 1760 320
WIRE 1760 528 1696 528
WIRE 1792 528 1760 528
WIRE 1520 576 1504 576
WIRE 304 656 304 544
WIRE 528 656 528 480
WIRE 528 656 304 656
WIRE 1008 656 1008 528
WIRE 1008 656 528 656
WIRE 1504 656 1504 576
WIRE 1504 656 1008 656
WIRE 1008 672 1008 656
FLAG 1792 528 out
FLAG 336 384 in
FLAG 1008 672 0
SYMBOL cap 656 208 R90
WINDOW 0 0 32 VBottom 2
WINDOW 3 32 32 VTop 2
SYMATTR InstName C1
SYMATTR Value {C1}
SYMBOL voltage 304 448 R0
WINDOW 3 29 109 Left 2
WINDOW 123 23 102 Left 2
WINDOW 39 0 0 Left 2
SYMATTR Value ""
SYMATTR Value2 AC 1
SYMATTR InstName V1
SYMBOL res 464 368 R90
WINDOW 0 0 56 VBottom 2
WINDOW 3 32 56 VTop 2
SYMATTR InstName R1
SYMATTR Value {Rg}
SYMBOL ao_model 608 432 R0
SYMATTR InstName X1
SYMBOL res 672 112 R90
WINDOW 0 0 56 VBottom 2
WINDOW 3 32 56 VTop 2
SYMATTR InstName R2
SYMATTR Value {Rq}
SYMBOL cap 1152 256 R90
WINDOW 0 0 32 VBottom 2
WINDOW 3 32 32 VTop 2
SYMATTR InstName C2
SYMATTR Value {C2}
SYMBOL ao_model 1072 480 R0
SYMATTR InstName X2
SYMBOL res 928 416 R90
WINDOW 0 0 56 VBottom 2
WINDOW 3 32 56 VTop 2
SYMATTR InstName R3
SYMATTR Value {R2}
SYMBOL ao_model 1568 528 R0
SYMATTR InstName X3
SYMBOL res 1424 464 R90
WINDOW 0 0 56 VBottom 2
WINDOW 3 32 56 VTop 2
SYMATTR InstName R4
SYMATTR Value {R}
SYMBOL res 1648 304 R90
WINDOW 0 0 56 VBottom 2
WINDOW 3 32 56 VTop 2
SYMATTR InstName R5
SYMATTR Value {R}
SYMBOL res 1200 0 R90
WINDOW 0 0 56 VBottom 2
WINDOW 3 32 56 VTop 2
SYMATTR InstName R6
SYMATTR Value {R1}
TEXT 504 -32 Left 2 !.PARAM Rg= Rq= R1= R2= R= C1= C2=
