Version 4
SHEET 1 1600 1516
WIRE 592 112 496 112
WIRE 800 112 672 112
WIRE 1104 304 1104 272
WIRE 1216 304 1216 272
WIRE 1328 304 1328 272
WIRE 496 384 496 112
WIRE 496 384 304 384
WIRE 560 384 496 384
WIRE 304 416 304 384
WIRE 800 432 800 112
WIRE 800 432 736 432
WIRE 848 432 800 432
WIRE 1104 432 1104 384
WIRE 1216 432 1216 384
WIRE 1216 432 1104 432
WIRE 1328 432 1328 384
WIRE 1328 432 1216 432
WIRE 1216 464 1216 432
WIRE 560 480 464 480
WIRE 800 496 800 432
WIRE 304 528 304 480
WIRE 464 528 464 480
WIRE 656 544 656 512
WIRE 800 608 800 560
WIRE 464 640 464 608
WIRE 656 656 656 624
WIRE 576 896 480 896
WIRE 784 896 656 896
WIRE 480 1168 480 896
WIRE 480 1168 288 1168
WIRE 544 1168 480 1168
WIRE 288 1200 288 1168
WIRE 784 1216 784 896
WIRE 784 1216 720 1216
WIRE 832 1216 784 1216
WIRE 544 1264 448 1264
WIRE 784 1280 784 1216
WIRE 288 1312 288 1264
WIRE 448 1312 448 1264
WIRE 640 1328 640 1296
WIRE 784 1392 784 1344
WIRE 448 1424 448 1392
WIRE 640 1440 640 1408
FLAG 1216 464 0
FLAG 1104 272 $G_VDD
FLAG 1216 272 $G_VSS
FLAG 1328 272 vmc
FLAG 304 528 vmc
FLAG 848 432 out_ac
FLAG 464 640 vmc
FLAG 800 608 vmc
FLAG 656 656 0
FLAG 288 1312 vmc
FLAG 832 1216 out_ac2
FLAG 448 1424 vmc
FLAG 784 1392 vmc
FLAG 640 1440 0
SYMBOL voltage 1104 288 R0
WINDOW 123 0 0 Left 2
WINDOW 39 0 0 Left 2
SYMATTR InstName V2
SYMATTR Value 1.65
SYMBOL voltage 1216 288 R0
WINDOW 123 0 0 Left 2
WINDOW 39 0 0 Left 2
SYMATTR InstName V3
SYMATTR Value -1.65
SYMBOL voltage 1328 288 R0
WINDOW 123 0 0 Left 2
WINDOW 39 0 0 Left 2
SYMATTR InstName V1
SYMATTR Value 0
SYMBOL res 688 96 R90
WINDOW 0 0 56 VBottom 2
WINDOW 3 32 56 VTop 2
SYMATTR InstName R1
SYMATTR Value 10Meg
SYMBOL cap 288 416 R0
SYMATTR InstName C1
SYMATTR Value 1m
SYMBOL current 656 544 R0
WINDOW 123 0 0 Left 2
WINDOW 39 0 0 Left 2
WINDOW 3 31 76 Left 2
SYMATTR Value 25µ
SYMATTR InstName I1
SYMBOL voltage 464 512 R0
WINDOW 123 24 118 Left 2
WINDOW 39 0 0 Left 2
SYMATTR Value2 AC 1
SYMATTR InstName V4
SYMATTR Value ""
SYMBOL cap 784 496 R0
WINDOW 3 30 56 Left 2
SYMATTR Value 5p
SYMATTR InstName C2
SYMBOL ao_cp_n 608 432 R0
SYMATTR InstName X2
SYMBOL res 672 880 R90
WINDOW 0 0 56 VBottom 2
WINDOW 3 32 56 VTop 2
SYMATTR InstName R2
SYMATTR Value 10Meg
SYMBOL cap 272 1200 R0
SYMATTR InstName C3
SYMATTR Value 1m
SYMBOL current 640 1328 R0
WINDOW 123 0 0 Left 2
WINDOW 39 0 0 Left 2
WINDOW 3 31 76 Left 2
SYMATTR Value 10µ
SYMATTR InstName I2
SYMBOL voltage 448 1296 R0
WINDOW 123 24 118 Left 2
WINDOW 39 0 0 Left 2
SYMATTR Value2 AC 1
SYMATTR InstName V5
SYMATTR Value ""
SYMBOL cap 768 1280 R0
WINDOW 3 30 56 Left 2
SYMATTR Value 5p
SYMATTR InstName C4
SYMBOL nmosFoldedCascode_ekvModellingEdited 592 1216 R0
SYMATTR InstName X1
TEXT 64 152 Left 2 !.lib proiect_CAA.txt
TEXT 64 192 Left 2 !.ac dec 100 1 1G
TEXT 64 232 Left 2 ;.op
