Version 4
SHEET 1 2632 1328
WIRE 704 -976 704 -992
WIRE 704 -960 704 -976
WIRE 640 -928 608 -928
WIRE 800 -928 768 -928
WIRE 928 -928 880 -928
WIRE 704 -816 704 -832
WIRE 704 -800 704 -816
WIRE 608 -768 608 -928
WIRE 640 -768 608 -768
WIRE 800 -768 768 -768
WIRE 928 -768 928 -928
WIRE 928 -768 880 -768
WIRE 704 -656 704 -672
WIRE 704 -640 704 -656
WIRE 608 -608 608 -768
WIRE 640 -608 608 -608
WIRE 800 -608 768 -608
WIRE 928 -608 928 -768
WIRE 928 -608 880 -608
WIRE 704 -512 704 -528
WIRE 704 -496 704 -512
WIRE 608 -464 608 -608
WIRE 640 -464 608 -464
WIRE 800 -464 768 -464
WIRE 928 -464 928 -608
WIRE 928 -464 880 -464
WIRE 80 -384 80 -416
WIRE 192 -384 192 -416
WIRE 304 -384 304 -416
WIRE 704 -352 704 -368
WIRE 704 -336 704 -352
WIRE 608 -304 608 -464
WIRE 640 -304 608 -304
WIRE 800 -304 768 -304
WIRE 928 -304 928 -464
WIRE 928 -304 880 -304
WIRE 80 -256 80 -304
WIRE 192 -256 192 -304
WIRE 192 -256 80 -256
WIRE 304 -256 304 -304
WIRE 304 -256 192 -256
WIRE 192 -224 192 -256
WIRE 704 -192 704 -208
WIRE 704 -176 704 -192
WIRE 608 -144 608 -304
WIRE 640 -144 608 -144
WIRE 800 -144 768 -144
WIRE 928 -144 928 -304
WIRE 928 -144 880 -144
WIRE 704 -32 704 -48
WIRE 704 -16 704 -32
WIRE 608 16 608 -144
WIRE 640 16 608 16
WIRE 800 16 768 16
WIRE 928 16 928 -144
WIRE 928 16 880 16
WIRE 704 128 704 112
WIRE 704 144 704 128
WIRE -400 176 -400 144
WIRE -304 176 -304 144
WIRE -208 176 -208 144
WIRE -112 176 -112 144
WIRE -16 176 -16 144
WIRE 80 176 80 144
WIRE 192 176 192 144
WIRE 288 176 288 144
WIRE 384 176 384 144
WIRE 496 176 496 144
WIRE 608 176 608 16
WIRE 640 176 608 176
WIRE 800 176 768 176
WIRE 928 176 928 16
WIRE 928 176 880 176
WIRE -400 288 -400 256
WIRE -304 288 -304 256
WIRE -304 288 -400 288
WIRE -208 288 -208 256
WIRE -208 288 -304 288
WIRE -112 288 -112 256
WIRE -112 288 -208 288
WIRE -16 288 -16 256
WIRE -16 288 -112 288
WIRE 48 288 -16 288
WIRE 80 288 80 256
WIRE 80 288 48 288
WIRE 192 288 192 256
WIRE 192 288 80 288
WIRE 288 288 288 256
WIRE 288 288 192 288
WIRE 384 288 384 256
WIRE 384 288 288 288
WIRE 496 288 496 256
WIRE 496 288 384 288
WIRE 704 288 704 272
WIRE 704 304 704 288
WIRE 48 320 48 288
WIRE 608 336 608 176
WIRE 640 336 608 336
WIRE 800 336 768 336
WIRE 928 336 928 176
WIRE 928 336 880 336
WIRE 704 448 704 432
WIRE 704 464 704 448
WIRE 608 496 608 336
WIRE 640 496 608 496
WIRE 800 496 768 496
WIRE 928 496 928 336
WIRE 928 496 880 496
WIRE 784 688 784 656
WIRE 784 800 784 768
WIRE 432 832 384 832
WIRE 480 832 432 832
WIRE 608 832 608 496
WIRE 608 832 560 832
WIRE 704 832 608 832
WIRE 928 880 928 496
WIRE 928 880 880 880
WIRE 976 880 928 880
WIRE 1024 880 976 880
WIRE 384 912 384 832
WIRE 704 928 656 928
WIRE 656 992 656 928
WIRE 384 1056 384 992
FLAG 192 -224 0
FLAG 80 -416 $G_VDD
FLAG 192 -416 $G_VSS
FLAG 304 -416 vmc
FLAG 656 992 vmc
FLAG 976 880 out
FLAG 704 448 s1
FLAG 704 288 s2
FLAG 704 128 s3
FLAG 704 -32 s4
FLAG 704 -192 s5
FLAG 704 -352 s6
FLAG 704 -512 s7
FLAG -400 144 s1
FLAG 432 832 in
FLAG -304 144 s2
FLAG -208 144 s3
FLAG -112 144 s4
FLAG -16 144 s5
FLAG 80 144 s6
FLAG 48 320 0
FLAG 384 1056 vmc
FLAG 784 656 $G_VDD
FLAG 704 -656 s8
FLAG 704 -816 s9
FLAG 704 -976 s10
FLAG 192 144 s7
FLAG 288 144 s8
FLAG 384 144 s9
FLAG 496 144 s10
SYMBOL voltage 384 896 R0
WINDOW 3 33 130 Left 2
WINDOW 123 35 87 Left 2
WINDOW 39 0 0 Left 0
SYMATTR Value ""
SYMATTR Value2 AC 1
SYMATTR InstName V4
SYMBOL voltage 80 -400 R0
WINDOW 123 0 0 Left 2
WINDOW 39 0 0 Left 2
SYMATTR InstName V1
SYMATTR Value 3.3
SYMBOL voltage 192 -400 R0
WINDOW 123 0 0 Left 2
WINDOW 39 0 0 Left 2
SYMATTR InstName V2
SYMATTR Value 0
SYMBOL voltage 304 -400 R0
WINDOW 123 0 0 Left 2
WINDOW 39 0 0 Left 2
SYMATTR InstName V3
SYMATTR Value 1.65
SYMBOL current 784 688 R0
WINDOW 123 0 0 Left 0
WINDOW 39 0 0 Left 0
SYMATTR InstName I3
SYMATTR Value 100u
SYMBOL res 576 816 R90
WINDOW 0 0 56 VBottom 2
WINDOW 3 32 56 VTop 2
SYMATTR InstName R11
SYMATTR Value {R}
SYMBOL res 896 480 R90
WINDOW 0 0 56 VBottom 2
WINDOW 3 32 56 VTop 2
SYMATTR InstName R1
SYMATTR Value {R1}
SYMBOL com_tgate 720 496 R0
SYMATTR InstName X2
SYMBOL res 896 320 R90
WINDOW 0 0 56 VBottom 2
WINDOW 3 32 56 VTop 2
SYMATTR InstName R2
SYMATTR Value {R2}
SYMBOL com_tgate 720 336 R0
SYMATTR InstName X3
SYMBOL res 896 160 R90
WINDOW 0 0 56 VBottom 2
WINDOW 3 32 56 VTop 2
SYMATTR InstName R3
SYMATTR Value {R3}
SYMBOL com_tgate 720 176 R0
SYMATTR InstName X4
SYMBOL res 896 0 R90
WINDOW 0 0 56 VBottom 2
WINDOW 3 32 56 VTop 2
SYMATTR InstName R4
SYMATTR Value {R4}
SYMBOL com_tgate 720 16 R0
SYMATTR InstName X5
SYMBOL res 896 -160 R90
WINDOW 0 0 56 VBottom 2
WINDOW 3 32 56 VTop 2
SYMATTR InstName R5
SYMATTR Value {R5}
SYMBOL com_tgate 720 -144 R0
SYMATTR InstName X7
SYMBOL res 896 -320 R90
WINDOW 0 0 56 VBottom 2
WINDOW 3 32 56 VTop 2
SYMATTR InstName R6
SYMATTR Value {R6}
SYMBOL com_tgate 720 -304 R0
SYMATTR InstName X8
SYMBOL res 896 -480 R90
WINDOW 0 0 56 VBottom 2
WINDOW 3 32 56 VTop 2
SYMATTR InstName R7
SYMATTR Value {R7}
SYMBOL com_tgate 720 -464 R0
SYMATTR InstName X9
SYMBOL voltage -400 160 R0
WINDOW 123 0 0 Left 0
WINDOW 39 0 0 Left 0
SYMATTR InstName V5
SYMATTR Value 0
SYMBOL voltage -304 160 R0
WINDOW 123 0 0 Left 0
WINDOW 39 0 0 Left 0
SYMATTR InstName V6
SYMATTR Value 0
SYMBOL voltage -208 160 R0
WINDOW 123 0 0 Left 0
WINDOW 39 0 0 Left 0
SYMATTR InstName V7
SYMATTR Value 0
SYMBOL voltage -112 160 R0
WINDOW 123 0 0 Left 0
WINDOW 39 0 0 Left 0
SYMATTR InstName V8
SYMATTR Value 0
SYMBOL voltage -16 160 R0
WINDOW 123 0 0 Left 0
WINDOW 39 0 0 Left 0
SYMATTR InstName V9
SYMATTR Value 0
SYMBOL voltage 80 160 R0
WINDOW 123 0 0 Left 0
WINDOW 39 0 0 Left 0
SYMATTR InstName V10
SYMATTR Value 0
SYMBOL ao_cp_p 752 880 R0
SYMATTR InstName X6
SYMBOL res 896 -624 R90
WINDOW 0 0 56 VBottom 2
WINDOW 3 32 56 VTop 2
SYMATTR InstName R8
SYMATTR Value {R8}
SYMBOL com_tgate 720 -608 R0
SYMATTR InstName X1
SYMBOL res 896 -784 R90
WINDOW 0 0 56 VBottom 2
WINDOW 3 32 56 VTop 2
SYMATTR InstName R9
SYMATTR Value {R9}
SYMBOL com_tgate 720 -768 R0
SYMATTR InstName X10
SYMBOL res 896 -944 R90
WINDOW 0 0 56 VBottom 2
WINDOW 3 32 56 VTop 2
SYMATTR InstName R10
SYMATTR Value {R10}
SYMBOL com_tgate 720 -928 R0
SYMATTR InstName X11
SYMBOL voltage 192 160 R0
WINDOW 123 0 0 Left 0
WINDOW 39 0 0 Left 0
SYMATTR InstName V11
SYMATTR Value 0
SYMBOL voltage 288 160 R0
WINDOW 123 0 0 Left 0
WINDOW 39 0 0 Left 0
SYMATTR InstName V12
SYMATTR Value 0
SYMBOL voltage 384 160 R0
WINDOW 123 0 0 Left 0
WINDOW 39 0 0 Left 0
SYMATTR InstName V13
SYMATTR Value 0
SYMBOL voltage 496 160 R0
WINDOW 123 0 0 Left 0
WINDOW 39 0 0 Left 0
SYMATTR InstName V14
SYMATTR Value 0
TEXT 80 -144 Left 2 !.lib cmos_TSMC018_TT.txt
TEXT -352 536 Left 2 !.param R1=?? R2=?? R3=?? R4=?? R5=?? R6=?? R7=?? R8=?? R9=?? R10=?? R=??
TEXT -400 -16 Left 6 ;10 Trepte cu pas de 4DB
